Info: SIMULATION PARAMETERS:
Info: TIMESTEP               0.5
Info: NUMBER OF STEPS        2000000
Info: STEPS PER CYCLE        20
Info: FIRST LDB TIMESTEP     100
Info: LAST LDB TIMESTEP     -1
Info: HOM BACKGROUND SCALING 1
Info: MIN ATOMS PER PATCH    40
Info: EMPTY PATCH LOAD       40 ATOMS
Info: INITIAL TEMPERATURE    298
Info: CENTER OF MASS MOVING INITIALLY? NO
Info: DIELECTRIC             1
Info: EXCLUDE                SCALED ONE-FOUR
Info: 1-4 ELECTROSTATICS SCALED BY 1
Info: MODIFIED 1-4 VDW PARAMETERS WILL BE USED
Info: NO DCD TRAJECTORY OUTPUT
Info: NO EXTENDED SYSTEM TRAJECTORY OUTPUT
Info: NO VELOCITY DCD OUTPUT
Info: NO FORCE DCD OUTPUT
Info: OUTPUT FILENAME        alphaR
Info: BINARY OUTPUT FILES WILL BE USED
Info: RESTART FILENAME       alphaR.restart
Info: RESTART FREQUENCY      5000
Info: BINARY RESTART FILES WILL BE USED
Info: SWITCHING ACTIVE
Info: SWITCHING ON           10
Info: SWITCHING OFF          12
Info: PAIRLIST DISTANCE      14
Info: PAIRLIST SHRINK RATE   0.01
Info: PAIRLIST GROW RATE     0.01
Info: PAIRLIST TRIGGER       0.3
Info: PAIRLISTS PER CYCLE    2
Info: PAIRLISTS ENABLED
Info: MARGIN                 1
Info: HYDROGEN GROUP CUTOFF  2.5
Info: PATCH DIMENSION        17.5
Info: ENERGY OUTPUT STEPS    5000
Info: ENERGY EVALUATION STEPS    5000
Info: OUTPUT ENERGY PRECISION 4
Info: OUPUT ENERGY PRECISION 4
Info: CROSSTERM ENERGY INCLUDED IN DIHEDRAL
Info: TIMING OUTPUT STEPS    5000
Info: COLLECTIVE VARIABLES CALCULATION REQUESTED
Info: COLLECTIVE VARIABLES CONFIGURATION   alphaR.colvars
Info: STOCHASTIC RESCALING ACTIVE
Info: STOCHASTIC RESCALING TEMPERATURE 298 K
Info: STOCHASTIC RESCALING PERIOD 1 PS
Info: STOCHASTIC RESCALING WILL OCCUR EVERY 20 STEPS
Info: USING VERLET I (r-RESPA) MTS SCHEME.
Info: C1 SPLITTING OF LONG RANGE ELECTROSTATICS
Info: PLACING ATOMS IN PATCHES BY HYDROGEN GROUPS
Info: RIGID BONDS TO HYDROGEN : ALL
Info:         ERROR TOLERANCE : 1e-08
Info:          MAX ITERATIONS : 100
Info: RIGID WATER USING SETTLE ALGORITHM
Info: RANDOM NUMBER SEED     1708094365
Info: USE HYDROGEN BONDS?    NO
Info: COORDINATE PDB         alad.pdb
Info: STRUCTURE FILE         alad.psf
Info: PARAMETER file: CHARMM format!
Info: PARAMETERS             par_all22_prot.prm
Info: USING ARITHMETIC MEAN TO COMBINE L-J SIGMA PARAMETERS
Info: BINARY COORDINATES     min-alphaR.restart.coor
Info: SUMMARY OF PARAMETERS:
Info: 122 BONDS
Info: 323 ANGLES
Info: 445 DIHEDRAL
Info: 34 IMPROPER
Info: 6 CROSSTERM
Info: 47 VDW
Info: 0 VDW_PAIRS
Info: 0 NBTHOLE_PAIRS
Info: STRUCTURE SUMMARY:
Info: 22 ATOMS
Info: 21 BONDS
Info: 36 ANGLES
Info: 41 DIHEDRALS
Info: 4 IMPROPERS
Info: 0 CROSSTERMS
Info: 0 EXCLUSIONS
Info: 12 RIGID BONDS
Info: 51 DEGREES OF FREEDOM
Info: 10 HYDROGEN GROUPS
Info: 4 ATOMS IN LARGEST HYDROGEN GROUP
Info: 10 MIGRATION GROUPS
Info: 4 ATOMS IN LARGEST MIGRATION GROUP
Info: TOTAL MASS = 144.174 amu
Info: TOTAL CHARGE = 2.23517e-08 e
Info: ADDED 98 IMPLICIT EXCLUSIONS
Info: NONBONDED TABLE R-SQUARED SPACING: 0.0625
Info: NONBONDED TABLE SIZE: 769 POINTS
Info: ORIGINAL ATOMS MINMAX IS -60.496 33.057 58.9243  -54.7106 37.9474 65.6494
Info: ADJUSTED ATOMS MINMAX IS -60.0216 33.3599 59.3479  -54.8402 37.2795 65.2234
Info: REMOVING COM VELOCITY 0.266389 1.19543 1.18939
Info: Updated CUDA force table with 4096 elements.
Info: Updated CUDA LJ table with 47 x 47 elements.
Info: Updated CUDA force table with 4096 elements.
Info: Updated CUDA LJ table with 47 x 47 elements.
Info: Found 18 unique exclusion lists needing 28 bytes
ETITLE: TS BOND ANGLE DIHED IMPRP ELECT VDW BOUNDARY MISC KINETIC TOTAL TEMP POTENTIAL TOTAL3 TEMPAVG
ENERGY: 0 0.8204 2.8775 3.9839 0.1266 -16.7215 -0.7833 0.0000 0.0000 16.9361 7.2398 334.2204 -9.6963 7.2400 334.2204
ENERGY: 400000 2.6923 5.9904 4.8904 1.1424 -17.6697 -0.7478 0.0000 0.0000 10.4454 6.7435 206.1322 -3.7020 6.7659 236.7471
ENERGY: 800000 5.3920 9.3487 4.2527 0.9157 -18.3743 -0.2389 0.0000 0.0000 16.9218 18.2177 333.9381 1.2959 18.2323 316.2851
ENERGY: 1200000 1.1602 7.8867 4.6002 0.4846 -15.8614 1.3092 0.0000 0.0000 16.5385 16.1181 326.3743 -0.4204 16.1434 308.3175
ENERGY: 1600000 5.0573 9.0393 5.4106 0.7287 -16.3092 0.4263 0.0000 0.0000 10.8438 15.1968 213.9934 4.3530 15.2061 303.6073
ENERGY: 2000000 2.3455 8.0404 3.6547 0.3459 -15.8257 0.8090 0.0000 0.0000 19.1883 18.5582 378.6673 -0.6302 18.5801 378.9964
