Info: SIMULATION PARAMETERS:
Info: TIMESTEP               0.5
Info: NUMBER OF STEPS        2000000
Info: STEPS PER CYCLE        20
Info: FIRST LDB TIMESTEP     100
Info: LAST LDB TIMESTEP     -1
Info: HOM BACKGROUND SCALING 1
Info: MIN ATOMS PER PATCH    40
Info: EMPTY PATCH LOAD       40 ATOMS
Info: INITIAL TEMPERATURE    298
Info: CENTER OF MASS MOVING INITIALLY? NO
Info: DIELECTRIC             1
Info: EXCLUDE                SCALED ONE-FOUR
Info: 1-4 ELECTROSTATICS SCALED BY 1
Info: MODIFIED 1-4 VDW PARAMETERS WILL BE USED
Info: NO DCD TRAJECTORY OUTPUT
Info: NO EXTENDED SYSTEM TRAJECTORY OUTPUT
Info: NO VELOCITY DCD OUTPUT
Info: NO FORCE DCD OUTPUT
Info: OUTPUT FILENAME        alphaL
Info: BINARY OUTPUT FILES WILL BE USED
Info: RESTART FILENAME       alphaL.restart
Info: RESTART FREQUENCY      5000
Info: BINARY RESTART FILES WILL BE USED
Info: SWITCHING ACTIVE
Info: SWITCHING ON           10
Info: SWITCHING OFF          12
Info: PAIRLIST DISTANCE      14
Info: PAIRLIST SHRINK RATE   0.01
Info: PAIRLIST GROW RATE     0.01
Info: PAIRLIST TRIGGER       0.3
Info: PAIRLISTS PER CYCLE    2
Info: PAIRLISTS ENABLED
Info: MARGIN                 1
Info: HYDROGEN GROUP CUTOFF  2.5
Info: PATCH DIMENSION        17.5
Info: ENERGY OUTPUT STEPS    5000
Info: ENERGY EVALUATION STEPS    5000
Info: OUTPUT ENERGY PRECISION 4
Info: OUPUT ENERGY PRECISION 4
Info: CROSSTERM ENERGY INCLUDED IN DIHEDRAL
Info: TIMING OUTPUT STEPS    5000
Info: COLLECTIVE VARIABLES CALCULATION REQUESTED
Info: COLLECTIVE VARIABLES CONFIGURATION   alphaL.colvars
Info: STOCHASTIC RESCALING ACTIVE
Info: STOCHASTIC RESCALING TEMPERATURE 298 K
Info: STOCHASTIC RESCALING PERIOD 1 PS
Info: STOCHASTIC RESCALING WILL OCCUR EVERY 20 STEPS
Info: USING VERLET I (r-RESPA) MTS SCHEME.
Info: C1 SPLITTING OF LONG RANGE ELECTROSTATICS
Info: PLACING ATOMS IN PATCHES BY HYDROGEN GROUPS
Info: RIGID BONDS TO HYDROGEN : ALL
Info:         ERROR TOLERANCE : 1e-08
Info:          MAX ITERATIONS : 100
Info: RIGID WATER USING SETTLE ALGORITHM
Info: RANDOM NUMBER SEED     1708093922
Info: USE HYDROGEN BONDS?    NO
Info: COORDINATE PDB         alad.pdb
Info: STRUCTURE FILE         alad.psf
Info: PARAMETER file: CHARMM format!
Info: PARAMETERS             par_all22_prot.prm
Info: USING ARITHMETIC MEAN TO COMBINE L-J SIGMA PARAMETERS
Info: BINARY COORDINATES     min-alphaL.restart.coor
Info: SUMMARY OF PARAMETERS:
Info: 122 BONDS
Info: 323 ANGLES
Info: 445 DIHEDRAL
Info: 34 IMPROPER
Info: 6 CROSSTERM
Info: 47 VDW
Info: 0 VDW_PAIRS
Info: 0 NBTHOLE_PAIRS
Info: STRUCTURE SUMMARY:
Info: 22 ATOMS
Info: 21 BONDS
Info: 36 ANGLES
Info: 41 DIHEDRALS
Info: 4 IMPROPERS
Info: 0 CROSSTERMS
Info: 0 EXCLUSIONS
Info: 12 RIGID BONDS
Info: 51 DEGREES OF FREEDOM
Info: 10 HYDROGEN GROUPS
Info: 4 ATOMS IN LARGEST HYDROGEN GROUP
Info: 10 MIGRATION GROUPS
Info: 4 ATOMS IN LARGEST MIGRATION GROUP
Info: TOTAL MASS = 144.174 amu
Info: TOTAL CHARGE = 2.23517e-08 e
Info: ADDED 98 IMPLICIT EXCLUSIONS
Info: NONBONDED TABLE R-SQUARED SPACING: 0.0625
Info: NONBONDED TABLE SIZE: 769 POINTS
Info: ORIGINAL ATOMS MINMAX IS -60.2089 32.9704 59.0085  -54.5415 38.2531 65.6082
Info: ADJUSTED ATOMS MINMAX IS -59.9391 33.2212 59.2698  -54.851 37.7558 65.2213
Info: REMOVING COM VELOCITY -1.67653 -1.06958 -0.595437
Info: Updated CUDA force table with 4096 elements.
Info: Updated CUDA LJ table with 47 x 47 elements.
Info: Updated CUDA force table with 4096 elements.
Info: Updated CUDA LJ table with 47 x 47 elements.
Info: Found 18 unique exclusion lists needing 28 bytes
ETITLE: TS BOND ANGLE DIHED IMPRP ELECT VDW BOUNDARY MISC KINETIC TOTAL TEMP POTENTIAL TOTAL3 TEMPAVG
ENERGY: 0 0.9288 9.9312 6.0647 1.8672 -18.3443 0.7662 0.0000 0.0000 14.6407 15.8544 288.9222 1.2138 15.8563 288.9222
ENERGY: 400000 1.6852 16.0970 8.5214 0.4701 -19.1321 -1.3221 0.0000 0.0000 21.4875 27.8070 424.0392 6.3195 27.8371 300.2773
ENERGY: 800000 4.9671 16.0991 6.2592 0.1376 -15.0821 -1.5937 0.0000 0.0000 18.0285 28.8156 355.7786 10.7871 28.8347 335.6163
ENERGY: 1200000 4.2059 16.3072 9.4686 2.1358 -16.2824 -0.3225 0.0000 0.0000 15.1384 30.6509 298.7439 15.5126 30.6861 313.7521
ENERGY: 1600000 2.3822 14.1172 6.2356 1.0323 -15.3055 0.7412 0.0000 0.0000 12.1253 21.3283 239.2834 9.2030 21.3451 357.5352
ENERGY: 2000000 3.4511 8.9796 6.8588 0.5151 -15.8552 2.1812 0.0000 0.0000 20.9312 27.0618 413.0613 6.1306 27.0857 352.2174
