Info: SIMULATION PARAMETERS:
Info: TIMESTEP               0.5
Info: NUMBER OF STEPS        2000000
Info: STEPS PER CYCLE        20
Info: FIRST LDB TIMESTEP     100
Info: LAST LDB TIMESTEP     -1
Info: HOM BACKGROUND SCALING 1
Info: MIN ATOMS PER PATCH    40
Info: EMPTY PATCH LOAD       40 ATOMS
Info: INITIAL TEMPERATURE    298
Info: CENTER OF MASS MOVING INITIALLY? NO
Info: DIELECTRIC             1
Info: EXCLUDE                SCALED ONE-FOUR
Info: 1-4 ELECTROSTATICS SCALED BY 1
Info: MODIFIED 1-4 VDW PARAMETERS WILL BE USED
Info: NO DCD TRAJECTORY OUTPUT
Info: NO EXTENDED SYSTEM TRAJECTORY OUTPUT
Info: NO VELOCITY DCD OUTPUT
Info: NO FORCE DCD OUTPUT
Info: OUTPUT FILENAME        c7ax
Info: BINARY OUTPUT FILES WILL BE USED
Info: RESTART FILENAME       c7ax.restart
Info: RESTART FREQUENCY      5000
Info: BINARY RESTART FILES WILL BE USED
Info: SWITCHING ACTIVE
Info: SWITCHING ON           10
Info: SWITCHING OFF          12
Info: PAIRLIST DISTANCE      14
Info: PAIRLIST SHRINK RATE   0.01
Info: PAIRLIST GROW RATE     0.01
Info: PAIRLIST TRIGGER       0.3
Info: PAIRLISTS PER CYCLE    2
Info: PAIRLISTS ENABLED
Info: MARGIN                 1
Info: HYDROGEN GROUP CUTOFF  2.5
Info: PATCH DIMENSION        17.5
Info: ENERGY OUTPUT STEPS    5000
Info: ENERGY EVALUATION STEPS    5000
Info: OUTPUT ENERGY PRECISION 4
Info: OUPUT ENERGY PRECISION 4
Info: CROSSTERM ENERGY INCLUDED IN DIHEDRAL
Info: TIMING OUTPUT STEPS    5000
Info: COLLECTIVE VARIABLES CALCULATION REQUESTED
Info: COLLECTIVE VARIABLES CONFIGURATION   c7ax.colvars
Info: STOCHASTIC RESCALING ACTIVE
Info: STOCHASTIC RESCALING TEMPERATURE 298 K
Info: STOCHASTIC RESCALING PERIOD 1 PS
Info: STOCHASTIC RESCALING WILL OCCUR EVERY 20 STEPS
Info: USING VERLET I (r-RESPA) MTS SCHEME.
Info: C1 SPLITTING OF LONG RANGE ELECTROSTATICS
Info: PLACING ATOMS IN PATCHES BY HYDROGEN GROUPS
Info: RIGID BONDS TO HYDROGEN : ALL
Info:         ERROR TOLERANCE : 1e-08
Info:          MAX ITERATIONS : 100
Info: RIGID WATER USING SETTLE ALGORITHM
Info: RANDOM NUMBER SEED     1708094815
Info: USE HYDROGEN BONDS?    NO
Info: COORDINATE PDB         alad.pdb
Info: STRUCTURE FILE         alad.psf
Info: PARAMETER file: CHARMM format!
Info: PARAMETERS             par_all22_prot.prm
Info: USING ARITHMETIC MEAN TO COMBINE L-J SIGMA PARAMETERS
Info: BINARY COORDINATES     min-c7ax.restart.coor
Info: SUMMARY OF PARAMETERS:
Info: 122 BONDS
Info: 323 ANGLES
Info: 445 DIHEDRAL
Info: 34 IMPROPER
Info: 6 CROSSTERM
Info: 47 VDW
Info: 0 VDW_PAIRS
Info: 0 NBTHOLE_PAIRS
Info: STRUCTURE SUMMARY:
Info: 22 ATOMS
Info: 21 BONDS
Info: 36 ANGLES
Info: 41 DIHEDRALS
Info: 4 IMPROPERS
Info: 0 CROSSTERMS
Info: 0 EXCLUSIONS
Info: 12 RIGID BONDS
Info: 51 DEGREES OF FREEDOM
Info: 10 HYDROGEN GROUPS
Info: 4 ATOMS IN LARGEST HYDROGEN GROUP
Info: 10 MIGRATION GROUPS
Info: 4 ATOMS IN LARGEST MIGRATION GROUP
Info: TOTAL MASS = 144.174 amu
Info: TOTAL CHARGE = 2.23517e-08 e
Info: ADDED 98 IMPLICIT EXCLUSIONS
Info: NONBONDED TABLE R-SQUARED SPACING: 0.0625
Info: NONBONDED TABLE SIZE: 769 POINTS
Info: ORIGINAL ATOMS MINMAX IS -60.4915 33.011 59.0093  -54.3701 38.085 65.6554
Info: ADJUSTED ATOMS MINMAX IS -60.0778 33.2607 59.3105  -54.8024 37.4981 65.1892
Info: REMOVING COM VELOCITY 3.5386 -2.21694 -1.1722
Info: Updated CUDA force table with 4096 elements.
Info: Updated CUDA LJ table with 47 x 47 elements.
Info: Updated CUDA force table with 4096 elements.
Info: Updated CUDA LJ table with 47 x 47 elements.
Info: Found 18 unique exclusion lists needing 28 bytes
ETITLE: TS BOND ANGLE DIHED IMPRP ELECT VDW BOUNDARY MISC KINETIC TOTAL TEMP POTENTIAL TOTAL3 TEMPAVG
ENERGY: 0 1.0806 22.5375 12.1030 6.5766 -25.7799 3.4323 0.0000 0.0110 15.3376 35.2989 302.6750 19.9613 35.3083 302.6750
ENERGY: 400000 1.3362 10.4975 5.1731 0.7293 -20.2429 -0.2330 0.0000 0.0000 16.8010 14.0613 331.5547 -2.7397 14.0719 269.7732
ENERGY: 800000 6.7982 8.0292 4.1496 0.6020 -19.9509 1.2704 0.0000 0.0000 9.4519 10.3504 186.5252 0.8986 10.3528 219.9467
ENERGY: 1200000 2.1454 11.5074 5.0394 0.1418 -18.5147 -0.2375 0.0000 0.0000 19.8395 19.9212 391.5165 0.0817 19.9418 271.7561
ENERGY: 1600000 2.3995 14.0832 5.6339 0.1106 -22.8602 2.8446 0.0000 0.0000 13.1324 15.3440 259.1585 2.2116 15.3499 253.2444
ENERGY: 2000000 5.9433 14.0485 7.8960 1.0409 -24.8870 0.4682 0.0000 0.0000 21.1057 25.6156 416.5056 4.5098 25.6450 338.4467
