Info: SIMULATION PARAMETERS:
Info: TIMESTEP               0.5
Info: NUMBER OF STEPS        2000000
Info: STEPS PER CYCLE        20
Info: FIRST LDB TIMESTEP     100
Info: LAST LDB TIMESTEP     -1
Info: HOM BACKGROUND SCALING 1
Info: MIN ATOMS PER PATCH    40
Info: EMPTY PATCH LOAD       40 ATOMS
Info: INITIAL TEMPERATURE    298
Info: CENTER OF MASS MOVING INITIALLY? NO
Info: DIELECTRIC             1
Info: EXCLUDE                SCALED ONE-FOUR
Info: 1-4 ELECTROSTATICS SCALED BY 1
Info: MODIFIED 1-4 VDW PARAMETERS WILL BE USED
Info: NO DCD TRAJECTORY OUTPUT
Info: NO EXTENDED SYSTEM TRAJECTORY OUTPUT
Info: NO VELOCITY DCD OUTPUT
Info: NO FORCE DCD OUTPUT
Info: OUTPUT FILENAME        c7eq
Info: BINARY OUTPUT FILES WILL BE USED
Info: RESTART FILENAME       c7eq.restart
Info: RESTART FREQUENCY      5000
Info: BINARY RESTART FILES WILL BE USED
Info: SWITCHING ACTIVE
Info: SWITCHING ON           10
Info: SWITCHING OFF          12
Info: PAIRLIST DISTANCE      14
Info: PAIRLIST SHRINK RATE   0.01
Info: PAIRLIST GROW RATE     0.01
Info: PAIRLIST TRIGGER       0.3
Info: PAIRLISTS PER CYCLE    2
Info: PAIRLISTS ENABLED
Info: MARGIN                 1
Info: HYDROGEN GROUP CUTOFF  2.5
Info: PATCH DIMENSION        17.5
Info: ENERGY OUTPUT STEPS    5000
Info: ENERGY EVALUATION STEPS    5000
Info: OUTPUT ENERGY PRECISION 4
Info: OUPUT ENERGY PRECISION 4
Info: CROSSTERM ENERGY INCLUDED IN DIHEDRAL
Info: TIMING OUTPUT STEPS    5000
Info: COLLECTIVE VARIABLES CALCULATION REQUESTED
Info: COLLECTIVE VARIABLES CONFIGURATION   c7eq.colvars
Info: STOCHASTIC RESCALING ACTIVE
Info: STOCHASTIC RESCALING TEMPERATURE 298 K
Info: STOCHASTIC RESCALING PERIOD 1 PS
Info: STOCHASTIC RESCALING WILL OCCUR EVERY 20 STEPS
Info: USING VERLET I (r-RESPA) MTS SCHEME.
Info: C1 SPLITTING OF LONG RANGE ELECTROSTATICS
Info: PLACING ATOMS IN PATCHES BY HYDROGEN GROUPS
Info: RIGID BONDS TO HYDROGEN : ALL
Info:         ERROR TOLERANCE : 1e-08
Info:          MAX ITERATIONS : 100
Info: RIGID WATER USING SETTLE ALGORITHM
Info: RANDOM NUMBER SEED     1708095257
Info: USE HYDROGEN BONDS?    NO
Info: COORDINATE PDB         alad.pdb
Info: STRUCTURE FILE         alad.psf
Info: PARAMETER file: CHARMM format!
Info: PARAMETERS             par_all22_prot.prm
Info: USING ARITHMETIC MEAN TO COMBINE L-J SIGMA PARAMETERS
Info: BINARY COORDINATES     min-c7eq.restart.coor
Info: SUMMARY OF PARAMETERS:
Info: 122 BONDS
Info: 323 ANGLES
Info: 445 DIHEDRAL
Info: 34 IMPROPER
Info: 6 CROSSTERM
Info: 47 VDW
Info: 0 VDW_PAIRS
Info: 0 NBTHOLE_PAIRS
Info: STRUCTURE SUMMARY:
Info: 22 ATOMS
Info: 21 BONDS
Info: 36 ANGLES
Info: 41 DIHEDRALS
Info: 4 IMPROPERS
Info: 0 CROSSTERMS
Info: 0 EXCLUSIONS
Info: 12 RIGID BONDS
Info: 51 DEGREES OF FREEDOM
Info: 10 HYDROGEN GROUPS
Info: 4 ATOMS IN LARGEST HYDROGEN GROUP
Info: 10 MIGRATION GROUPS
Info: 4 ATOMS IN LARGEST MIGRATION GROUP
Info: TOTAL MASS = 144.174 amu
Info: TOTAL CHARGE = 2.23517e-08 e
Info: ADDED 98 IMPLICIT EXCLUSIONS
Info: NONBONDED TABLE R-SQUARED SPACING: 0.0625
Info: NONBONDED TABLE SIZE: 769 POINTS
Info: ORIGINAL ATOMS MINMAX IS -60.293 33.2152 59.2221  -54.527 37.7167 65.4999
Info: ADJUSTED ATOMS MINMAX IS -60.0357 33.238 58.9418  -54.6881 37.5132 65.3349
Info: REMOVING COM VELOCITY -0.329307 0.086511 2.4173
Info: Updated CUDA force table with 4096 elements.
Info: Updated CUDA LJ table with 47 x 47 elements.
Info: Updated CUDA force table with 4096 elements.
Info: Updated CUDA LJ table with 47 x 47 elements.
Info: Found 18 unique exclusion lists needing 28 bytes
ETITLE: TS BOND ANGLE DIHED IMPRP ELECT VDW BOUNDARY MISC KINETIC TOTAL TEMP POTENTIAL TOTAL3 TEMPAVG
ENERGY: 0 0.6618 2.1005 3.9643 0.0178 -20.7802 -0.0144 0.0000 0.0000 16.8070 2.7567 331.6723 -14.0503 2.7569 331.6723
ENERGY: 400000 5.2846 7.1294 7.6530 1.1080 -20.7166 2.0911 0.0000 0.0000 11.8412 14.3906 233.6763 2.5494 14.3930 317.1099
ENERGY: 800000 6.2800 6.2044 5.6862 1.1021 -21.5100 1.5475 0.0000 0.0000 12.2911 11.6014 242.5558 -0.6897 11.6063 256.1360
ENERGY: 1200000 5.9204 8.6414 4.7127 1.1556 -18.3149 1.5215 0.0000 0.0000 13.6387 17.2754 269.1484 3.6367 17.2804 312.1492
ENERGY: 1600000 2.2552 4.8120 6.2413 1.6907 -16.0165 1.0664 0.0000 0.0000 13.8255 13.8745 272.8352 0.0490 13.8829 267.7999
ENERGY: 2000000 1.7121 10.4850 6.0193 0.3269 -18.3616 1.0330 0.0000 0.0000 10.1888 11.4035 201.0674 1.2148 11.4043 271.6424
