Info: SIMULATION PARAMETERS:
Info: TIMESTEP               2
Info: NUMBER OF STEPS        5000000
Info: STEPS PER CYCLE        20
Info: PERIODIC CELL BASIS 1  23.8751 0 0
Info: PERIODIC CELL BASIS 2  0 23.8751 0
Info: PERIODIC CELL BASIS 3  0 0 71.6253
Info: PERIODIC CELL CENTER   0 0 0
Info: WRAPPING ALL CLUSTERS AROUND PERIODIC BOUNDARIES ON OUTPUT.
Info: FIRST LDB TIMESTEP     100
Info: LAST LDB TIMESTEP     -1
Info: HOM BACKGROUND SCALING 1
Info: PME BACKGROUND SCALING 1
Info: MIN ATOMS PER PATCH    40
Info: EMPTY PATCH LOAD       40 ATOMS
Info: VELOCITY FILE          equilibrate.restart.vel
Info: CENTER OF MASS MOVING INITIALLY? NO
Info: DIELECTRIC             1
Info: EXCLUDE                SCALED ONE-FOUR
Info: 1-4 ELECTROSTATICS SCALED BY 1
Info: MODIFIED 1-4 VDW PARAMETERS WILL BE USED
Info: DCD FILENAME           output/window1.dcd
Info: DCD FREQUENCY          10000
Info: DCD FIRST STEP         10000
Info: DCD FILE WILL CONTAIN UNIT CELL DATA
Info: XST FILENAME           output/window1.xst
Info: XST FREQUENCY          10000
Info: NO VELOCITY DCD OUTPUT
Info: NO FORCE DCD OUTPUT
Info: OUTPUT FILENAME        output/window1
Info: RESTART FILENAME       output/window1.restart
Info: RESTART FREQUENCY      10000
Info: BINARY RESTART FILES WILL BE USED
Info: SWITCHING ACTIVE
Info: SWITCHING ON           10
Info: SWITCHING OFF          11
Info: PAIRLIST DISTANCE      12
Info: PAIRLIST SHRINK RATE   0.01
Info: PAIRLIST GROW RATE     0.01
Info: PAIRLIST TRIGGER       0.3
Info: PAIRLISTS PER CYCLE    2
Info: PAIRLISTS ENABLED
Info: MARGIN                 4
Info: HYDROGEN GROUP CUTOFF  2.8
Info: PATCH DIMENSION        18.8
Info: ENERGY OUTPUT STEPS    10000
Info: ENERGY EVALUATION STEPS    10000
Info: OUTPUT ENERGY PRECISION 4
Info: OUPUT ENERGY PRECISION 4
Info: CROSSTERM ENERGY INCLUDED IN DIHEDRAL
Info: TIMING OUTPUT STEPS    10000
Info: PRESSURE OUTPUT STEPS  10000
Info: COLLECTIVE VARIABLES CALCULATION REQUESTED
Info: COLLECTIVE VARIABLES CONFIGURATION   window-1.in
Info: LANGEVIN DYNAMICS ACTIVE
Info: LANGEVIN TEMPERATURE   298
Info: LANGEVIN USING BBK INTEGRATOR
Info: LANGEVIN DAMPING COEFFICIENT IS 2 INVERSE PS
Info: LANGEVIN DYNAMICS APPLIED TO HYDROGENS
Info: PARTICLE MESH EWALD (PME) ACTIVE
Info: PME TOLERANCE               1e-06
Info: PME EWALD COEFFICIENT       0.282619
Info: PME INTERPOLATION ORDER     4
Info: PME GRID DIMENSIONS         20 20 60
Info: PME MAXIMUM GRID SPACING    1.2
Info: PME CALCULATION WILL BE PERFORMED ON GPU
Info: FULL ELECTROSTATIC EVALUATION FREQUENCY      2
Info: USING VERLET I (r-RESPA) MTS SCHEME.
Info: C1 SPLITTING OF LONG RANGE ELECTROSTATICS
Info: PLACING ATOMS IN PATCHES BY HYDROGEN GROUPS
Info: RIGID BONDS TO HYDROGEN : ALL
Info:         ERROR TOLERANCE : 1e-08
Info:          MAX ITERATIONS : 100
Info: RIGID WATER USING SETTLE ALGORITHM
Info: RANDOM NUMBER SEED     1747298413
Info: USE HYDROGEN BONDS?    NO
Info: COORDINATE PDB         ../solvate.pdb
Info: STRUCTURE FILE         ../solvate.psf
Info: PARAMETER file: CHARMM format!
Info: PARAMETERS             ../par_all36_cgenff.prm
Info: USING ARITHMETIC MEAN TO COMBINE L-J SIGMA PARAMETERS
Info: BINARY COORDINATES     equilibrate.restart.coor
Info: SUMMARY OF PARAMETERS:
Info: 449 BONDS
Info: 1377 ANGLES
Info: 3410 DIHEDRAL
Info: 102 IMPROPER
Info: 0 CROSSTERM
Info: 146 VDW
Info: 0 VDW_PAIRS
Info: 0 NBTHOLE_PAIRS
Info: STRUCTURE SUMMARY:
Info: 1377 ATOMS
Info: 920 BONDS
Info: 469 ANGLES
Info: 12 DIHEDRALS
Info: 0 IMPROPERS
Info: 0 CROSSTERMS
Info: 0 EXCLUSIONS
Info: 1374 RIGID BONDS
Info: 2757 DEGREES OF FREEDOM
Info: 459 HYDROGEN GROUPS
Info: 4 ATOMS IN LARGEST HYDROGEN GROUP
Info: 459 MIGRATION GROUPS
Info: 4 ATOMS IN LARGEST MIGRATION GROUP
Info: TOTAL MASS = 8261.09 amu
Info: TOTAL CHARGE = 1.86265e-08 e
Info: MASS DENSITY = 0.336 g/cm^3
Info: ATOM DENSITY = 0.033727 atoms/A^3
Info: ADDED 1401 IMPLICIT EXCLUSIONS
Info: NONBONDED TABLE R-SQUARED SPACING: 0.0625
Info: NONBONDED TABLE SIZE: 705 POINTS
Info: REMOVING COM VELOCITY -0.0322846 -0.0247773 0.0163501
Info: Use 3D box decompostion in PME FFT.
Info: Updated CUDA force table with 4096 elements.
Info: Updated CUDA LJ table with 146 x 146 elements.
Info: Found 11 unique exclusion lists needing 16 bytes
ETITLE: TS BOND ANGLE DIHED IMPRP ELECT VDW BOUNDARY MISC KINETIC TOTAL TEMP POTENTIAL TOTALAVG TEMPAVG PRESSURE GPRESSURE VOLUME PRESSAVG GPRESSAVG
ENERGY: 0 2.4053 4.0260 1.5437 0.0000 -4845.6759 485.0293 0.0000 0.0000 803.7446 -3548.9271 293.4078 -4352.6717 -3548.9271 293.4078 -144.1039 -134.3551 40827.8822 -144.1039 -134.3551
ENERGY: 1000000 0.4525 2.0105 2.1598 0.0000 -4839.4193 512.3129 0.0000 -1.6928 822.1210 -3502.0554 300.1162 -4324.1764 -3506.1681 298.6782 -130.0413 -175.0742 40827.8822 -117.4413 -121.1665
ENERGY: 2000000 0.5830 3.7803 0.6162 0.0000 -4875.1068 519.1455 0.0000 -0.8399 838.5891 -3513.2327 306.1278 -4351.8217 -3508.0039 299.6542 7.9993 14.7871 40827.8822 -114.0433 -102.8841
ENERGY: 3000000 0.2946 3.8496 0.8508 0.0000 -4717.8912 447.5107 0.0000 0.7955 817.5577 -3447.0322 298.4503 -4264.5899 -3495.8222 298.1113 -365.1255 -363.1456 40827.8822 -71.0391 -77.0446
ENERGY: 4000000 0.4482 4.6553 3.0011 0.0000 -4846.9387 545.8750 0.0000 -4.3273 855.0203 -3442.2659 312.1261 -4297.2863 -3511.7460 297.4390 426.6627 420.6157 40827.8822 -78.4711 -84.9659
ENERGY: 5000000 0.8542 3.3625 1.6155 0.0000 -4848.8100 492.1351 0.0000 -1.0632 859.3416 -3492.5643 313.7036 -4351.9059 -3505.5718 298.6700 -191.4002 -207.7602 40827.8822 -116.0748 -113.8655
